data/nesta/nesta_case162_ieee_dtc.m
%%%%%%%%%%%%%%%%%%%%%%%%%%%%%%%%%%%%%%%%%%%%%%%%%%%%%%%%%%%%%%%%%%%%%%%%%%%
%%%%                                                                  %%%%%
%%%%      NICTA Energy System Test Case Archive (NESTA) - v0.1.5      %%%%%
%%%%              Optimal Power Flow - Typical Operation              %%%%%
%%%%                       30 - October - 2014                        %%%%%
%%%%                                                                  %%%%%
%%%%%%%%%%%%%%%%%%%%%%%%%%%%%%%%%%%%%%%%%%%%%%%%%%%%%%%%%%%%%%%%%%%%%%%%%%%
%
%   Power flow data for IEEE 17-Generator Dynamic Test Case.
%   This data was converted from IEEE Common Data Format
%   (dd17cdf.txt) on 11-Jul-2014 by cdf2matp, rev. 2327
%   See end of file for warnings generated during conversion.
%
%   Converted from IEEE CDF file from:
%       http://www.ee.washington.edu/research/pstca/
%
%   CDF Header:
%   01/02/90 IEEE WORKING GROUP    100.0 1990 S 17-GEN  CASE
%
function mpc = nesta_case162_ieee_dtc
mpc.version = '2';
mpc.baseMVA = 100.0;

%% bus data
%	bus_i	type	Pd	Qd	Gs	Bs	area	Vm	Va	baseKV	zone	Vmax	Vmin
mpc.bus = [
	1	 1	 0.0	 0.0	 0.0	 -100.0	 1	     1.0326	   -25.3300	 345.0	 9	     1.0600	     0.9400;
	2	 1	 0.0	 0.0	 0.0	 0.0	 1	     1.0224	   -29.9900	 345.0	 9	     1.0600	     0.9400;
	3	 1	 370.0	 96.9	 0.0	 0.0	 1	     0.9999	   -32.4900	 161.0	 12	     1.0600	     0.9400;
	4	 1	 0.0	 0.0	 0.0	 0.0	 1	     1.0190	   -33.7400	 345.0	 3	     1.0600	     0.9400;
	5	 1	 0.0	 0.0	 0.0	 -50.0	 1	     1.0339	   -24.5100	 345.0	 8	     1.0600	     0.9400;
	6	 2	 0.0	 0.0	 0.0	 0.0	 1	     1.0000	   -19.1500	 22.0	 9	     1.0600	     0.9400;
	7	 1	 0.0	 0.0	 0.0	 0.0	 1	     1.0187	   -30.3800	 345.0	 9	     1.0600	     0.9400;
	8	 1	 398.0	 0.0	 0.0	 0.0	 1	     1.0344	   -33.8100	 115.0	 12	     1.0600	     0.9400;
	9	 1	 0.0	 0.0	 0.0	 0.0	 1	     1.0263	   -27.7600	 345.0	 8	     1.0600	     0.9400;
	10	 1	 226.0	 0.0	 0.0	 0.0	 1	     0.9928	   -35.6900	 230.0	 12	     1.0600	     0.9400;
	11	 1	 0.0	 0.0	 0.0	 0.0	 1	     0.9996	   -31.8300	 230.0	 10	     1.0600	     0.9400;
	12	 1	 193.0	 0.0	 0.0	 0.0	 1	     1.0379	   -33.6600	 115.0	 12	     1.0600	     0.9400;
	13	 1	 204.0	 0.0	 0.0	 0.0	 1	     1.0147	   -30.6700	 345.0	 12	     1.0600	     0.9400;
	14	 1	 381.0	 0.0	 0.0	 0.0	 1	     1.0280	   -31.0300	 161.0	 12	     1.0600	     0.9400;
	15	 1	 -80.0	 0.0	 0.0	 0.0	 1	     1.0185	   -24.5200	 230.0	 12	     1.0600	     0.9400;
	16	 1	 -54.2	 0.0	 0.0	 0.0	 1	     1.0141	   -29.5800	 161.0	 12	     1.0600	     0.9400;
	17	 1	 -116.5	 0.0	 0.0	 0.0	 1	     1.0059	   -28.8000	 161.0	 12	     1.0600	     0.9400;
	18	 1	 34.4	 11.67	 0.0	 0.0	 1	     1.0353	   -33.7500	 161.0	 6	     1.0600	     0.9400;
	19	 1	 64.4	 0.0	 0.0	 0.0	 1	     0.9993	   -38.0500	 161.0	 12	     1.0600	     0.9400;
	20	 1	 37.9	 12.5	 0.0	 0.0	 1	     0.9793	   -32.6900	 69.0	 10	     1.0600	     0.9400;
	21	 1	 -69.8	 0.0	 0.0	 0.0	 1	     1.0080	   -30.4200	 161.0	 12	     1.0600	     0.9400;
	22	 1	 17.39	 5.27	 0.0	 0.0	 1	     1.0336	   -37.6300	 161.0	 6	     1.0600	     0.9400;
	23	 1	 63.5	 0.0	 0.0	 0.0	 1	     0.9881	   -34.8500	 161.0	 12	     1.0600	     0.9400;
	24	 1	 0.0	 0.0	 0.0	 0.0	 1	     1.0091	   -33.3200	 161.0	 6	     1.0600	     0.9400;
	25	 1	 0.0	 0.0	 0.0	 -50.0	 1	     1.0012	   -29.3700	 345.0	 6	     1.0600	     0.9400;
	26	 1	 0.0	 0.0	 0.0	 -50.0	 1	     1.0323	   -21.4900	 345.0	 1	     1.0600	     0.9400;
	27	 1	 324.0	 57.9	 0.0	 0.0	 1	     0.9978	   -30.3900	 345.0	 12	     1.0600	     0.9400;
	28	 1	 38.47	 13.17	 0.0	 0.0	 1	     0.9882	   -36.1300	 161.0	 6	     1.0600	     0.9400;
	29	 1	 28.31	 9.03	 0.0	 0.0	 1	     0.9879	   -37.9300	 161.0	 6	     1.0600	     0.9400;
	30	 1	 101.2	 32.52	 0.0	 15.0	 1	     0.9978	   -39.8100	 161.0	 6	     1.0600	     0.9400;
	31	 1	 72.5	 0.0	 0.0	 0.0	 1	     0.9902	   -37.0700	 161.0	 12	     1.0600	     0.9400;
	32	 1	 52.7	 15.06	 0.0	 20.0	 1	     1.0046	   -41.0800	 161.0	 6	     1.0600	     0.9400;
	33	 1	 45.17	 15.06	 0.0	 20.0	 1	     0.9980	   -43.0100	 161.0	 6	     1.0600	     0.9400;
	34	 1	 14.18	 5.25	 0.0	 3.2	 1	     0.9984	   -43.0000	 161.0	 1	     1.0600	     0.9400;
	35	 1	 54.48	 14.63	 0.0	 5.0	 1	     0.9891	   -44.4400	 161.0	 1	     1.0600	     0.9400;
	36	 1	 31.96	 8.68	 0.0	 3.0	 1	     0.9957	   -43.1600	 161.0	 2	     1.0600	     0.9400;
	37	 1	 0.0	 0.0	 0.0	 0.0	 1	     0.9868	   -30.5800	 345.0	 11	     1.0600	     0.9400;
	38	 1	 14.76	 4.08	 0.0	 1.5	 1	     1.0185	   -38.1500	 161.0	 2	     1.0600	     0.9400;
	39	 1	 0.0	 0.0	 0.0	 0.0	 1	     0.9874	   -33.2200	 345.0	 6	     1.0600	     0.9400;
	40	 1	 52.88	 17.6	 0.0	 0.0	 1	     0.9997	   -42.0600	 161.0	 1	     1.0600	     0.9400;
	41	 1	 39.2	 12.8	 0.0	 0.0	 1	     1.0074	   -40.2100	 161.0	 1	     1.0600	     0.9400;
	42	 1	 0.0	 0.0	 0.0	 0.0	 1	     1.0036	   -33.0300	 345.0	 2	     1.0600	     0.9400;
	43	 1	 41.5	 0.0	 0.0	 0.0	 1	     1.0118	   -35.6400	 161.0	 12	     1.0600	     0.9400;
	44	 1	 16.32	 3.71	 0.0	 0.0	 1	     1.0071	   -36.1600	 161.0	 2	     1.0600	     0.9400;
	45	 1	 20.02	 5.41	 0.0	 1.9	 1	     0.9955	   -36.2200	 161.0	 2	     1.0600	     0.9400;
	46	 1	 65.31	 22.3	 0.0	 26.2	 1	     0.9988	   -38.9600	 161.0	 10	     1.0600	     0.9400;
	47	 1	 4.82	 1.56	 0.0	 0.0	 1	     0.9907	   -41.6800	 161.0	 2	     1.0600	     0.9400;
	48	 1	 33.76	 22.86	 0.0	 0.0	 1	     0.9997	   -40.6000	 161.0	 10	     1.0600	     0.9400;
	49	 1	 6.82	 1.78	 0.0	 0.0	 1	     0.9886	   -42.0000	 161.0	 2	     1.0600	     0.9400;
	50	 1	 99.7	 0.0	 0.0	 0.0	 1	     0.9961	   -39.5000	 161.0	 12	     1.0600	     0.9400;
	51	 1	 0.0	 0.0	 0.0	 0.0	 1	     0.9915	   -38.2300	 161.0	 3	     1.0600	     0.9400;
	52	 1	 218.2	 42.8	 0.0	 0.0	 1	     1.0148	   -39.3300	 161.0	 3	     1.0600	     0.9400;
	53	 1	 0.0	 0.0	 0.0	 0.0	 1	     0.9954	   -30.6800	 161.0	 10	     1.0600	     0.9400;
	54	 1	 70.34	 29.57	 0.0	 0.0	 1	     0.9885	   -37.8700	 161.0	 10	     1.0600	     0.9400;
	55	 1	 0.0	 0.0	 0.0	 0.0	 1	     0.9960	   -30.3900	 161.0	 1	     1.0600	     0.9400;
	56	 1	 25.29	 7.26	 0.0	 3.2	 1	     0.9914	   -40.5000	 161.0	 7	     1.0600	     0.9400;
	57	 1	 48.48	 15.61	 0.0	 0.0	 1	     0.9975	   -37.5400	 161.0	 1	     1.0600	     0.9400;
	58	 1	 0.0	 0.0	 0.0	 0.0	 1	     1.0085	   -28.6900	 230.0	 10	     1.0600	     0.9400;
	59	 1	 84.43	 27.05	 0.0	 0.0	 1	     0.9842	   -33.0300	 230.0	 10	     1.0600	     0.9400;
	60	 1	 244.0	 0.0	 0.0	 0.0	 1	     0.9922	   -34.0100	 115.0	 12	     1.0600	     0.9400;
	61	 1	 0.0	 0.0	 0.0	 0.0	 1	     0.9833	   -31.4300	 230.0	 10	     1.0600	     0.9400;
	62	 1	 -865.6	 0.0	 0.0	 0.0	 1	     1.0235	   -18.4700	 230.0	 12	     1.0600	     0.9400;
	63	 1	 59.1	 0.0	 0.0	 0.0	 1	     0.9882	   -29.7700	 230.0	 12	     1.0600	     0.9400;
	64	 1	 0.0	 0.0	 0.0	 0.0	 1	     1.0152	   -28.8900	 345.0	 10	     1.0600	     0.9400;
	65	 1	 -26.3	 0.0	 0.0	 0.0	 1	     0.9965	   -25.3200	 345.0	 12	     1.0600	     0.9400;
	66	 1	 0.0	 0.0	 0.0	 -50.0	 1	     1.0004	   -31.1200	 345.0	 10	     1.0600	     0.9400;
	67	 1	 22.54	 7.03	 0.0	 6.0	 1	     0.9998	   -41.7400	 161.0	 7	     1.0600	     0.9400;
	68	 1	 40.42	 12.68	 0.0	 12.0	 1	     1.0134	   -40.2400	 161.0	 7	     1.0600	     0.9400;
	69	 1	 0.0	 0.0	 0.0	 0.0	 1	     1.0202	   -38.9200	 161.0	 1	     1.0600	     0.9400;
	70	 1	 0.0	 0.0	 0.0	 0.0	 1	     1.0263	   -23.5800	 161.0	 1	     1.0600	     0.9400;
	71	 1	 29.87	 11.93	 0.0	 12.0	 1	     0.9922	   -31.7800	 161.0	 1	     1.0600	     0.9400;
	72	 1	 427.0	 0.0	 0.0	 0.0	 1	     1.0167	   -30.7800	 161.0	 12	     1.0600	     0.9400;
	73	 2	 0.0	 0.0	 0.0	 0.0	 1	     1.0000	   -18.4600	 20.0	 1	     1.0600	     0.9400;
	74	 1	 0.0	 0.0	 0.0	 0.0	 1	     1.0116	   -33.5700	 345.0	 5	     1.0600	     0.9400;
	75	 1	 0.0	 0.0	 0.0	 -50.0	 1	     1.0299	   -25.4300	 345.0	 8	     1.0600	     0.9400;
	76	 2	 0.0	 0.0	 0.0	 0.0	 1	     1.0000	   -16.4900	 24.0	 1	     1.0600	     0.9400;
	77	 1	 26.41	 8.78	 0.0	 4.7	 1	     1.0111	   -40.4900	 161.0	 1	     1.0600	     0.9400;
	78	 1	 79.12	 0.0	 0.0	 0.0	 1	     1.0229	   -38.2400	 161.0	 5	     1.0600	     0.9400;
	79	 1	 0.0	 0.0	 0.0	 0.0	 1	     1.0317	   -36.1900	 161.0	 5	     1.0600	     0.9400;
	80	 1	 15.76	 5.25	 0.0	 2.8	 1	     1.0099	   -38.3600	 161.0	 1	     1.0600	     0.9400;
	81	 1	 50.88	 16.8	 0.0	 22.1	 1	     1.0009	   -46.4300	 69.0	 1	     1.0600	     0.9400;
	82	 1	 62.28	 20.26	 0.0	 10.4	 1	     0.9988	   -42.0300	 161.0	 1	     1.0600	     0.9400;
	83	 1	 0.0	 0.0	 0.0	 0.0	 1	     1.0031	   -41.1300	 161.0	 1	     1.0600	     0.9400;
	84	 1	 37.9	 9.49	 0.0	 2.6	 1	     1.0097	   -37.7700	 161.0	 2	     1.0600	     0.9400;
	85	 1	 40.52	 11.26	 0.0	 12.0	 1	     0.9706	   -41.0700	 161.0	 1	     1.0600	     0.9400;
	86	 1	 50.73	 13.35	 0.0	 12.0	 1	     0.9696	   -45.0000	 161.0	 2	     1.0600	     0.9400;
	87	 1	 16.91	 4.23	 0.0	 0.0	 1	     0.9799	   -43.5500	 115.0	 2	     1.0600	     0.9400;
	88	 1	 60.6	 4.44	 0.0	 0.0	 1	     0.9889	   -44.7700	 69.0	 4	     1.0600	     0.9400;
	89	 1	 0.0	 0.0	 0.0	 0.0	 1	     0.9910	   -46.1700	 115.0	 2	     1.0600	     0.9400;
	90	 1	 50.21	 16.76	 0.0	 10.0	 1	     0.9611	   -48.6600	 115.0	 2	     1.0600	     0.9400;
	91	 1	 51.24	 12.83	 0.0	 0.0	 1	     1.0121	   -36.5500	 161.0	 2	     1.0600	     0.9400;
	92	 1	 36.12	 9.05	 0.0	 0.0	 1	     1.0023	   -37.5200	 161.0	 2	     1.0600	     0.9400;
	93	 1	 103.8	 34.56	 0.0	 0.0	 1	     1.0290	   -32.6600	 161.0	 2	     1.0600	     0.9400;
	94	 1	 164.0	 6.49	 0.0	 0.0	 1	     1.0262	   -36.9400	 161.0	 5	     1.0600	     0.9400;
	95	 1	 117.2	 39.01	 0.0	 0.0	 1	     1.0300	   -36.5600	 115.0	 2	     1.0600	     0.9400;
	96	 1	 119.2	 0.0	 0.0	 0.0	 1	     1.0011	   -45.0800	 115.0	 2	     1.0600	     0.9400;
	97	 1	 22.84	 5.71	 0.0	 0.0	 1	     1.0266	   -37.2200	 115.0	 2	     1.0600	     0.9400;
	98	 1	 151.1	 50.35	 0.0	 0.0	 1	     1.0443	   -35.3200	 115.0	 2	     1.0600	     0.9400;
	99	 2	 0.0	 0.0	 0.0	 0.0	 1	     1.0000	   -31.4100	 18.0	 2	     1.0600	     0.9400;
	100	 1	 23.21	 6.9	 0.0	 3.0	 1	     0.9871	   -45.8400	 115.0	 2	     1.0600	     0.9400;
	101	 2	 0.0	 0.0	 0.0	 0.0	 1	     1.0000	   -40.0900	 14.0	 2	     1.0600	     0.9400;
	102	 1	 16.54	 4.08	 0.0	 0.0	 1	     1.0032	   -37.0300	 161.0	 2	     1.0600	     0.9400;
	103	 1	 322.0	 0.0	 0.0	 0.0	 1	     1.0150	   -34.6800	 161.0	 12	     1.0600	     0.9400;
	104	 1	 31.52	 10.46	 0.0	 5.6	 1	     0.9927	   -44.6400	 115.0	 2	     1.0600	     0.9400;
	105	 1	 24.84	 6.23	 0.0	 1.7	 1	     1.0338	   -38.5900	 115.0	 2	     1.0600	     0.9400;
	106	 1	 0.0	 0.0	 0.0	 0.0	 1	     0.9946	   -43.0100	 161.0	 4	     1.0600	     0.9400;
	107	 1	 35.41	 5.41	 0.0	 0.0	 1	     0.9908	   -43.9000	 161.0	 4	     1.0600	     0.9400;
	108	 3	 0.0	 0.0	 0.0	 0.0	 1	     1.0000	   -27.6900	 22.0	 2	     1.0600	     0.9400;
	109	 1	 0.0	 0.0	 0.0	 0.0	 1	     1.0134	   -33.0500	 345.0	 5	     1.0600	     0.9400;
	110	 1	 0.0	 0.0	 0.0	 0.0	 1	     1.0273	   -29.5200	 161.0	 3	     1.0600	     0.9400;
	111	 1	 65.41	 16.72	 0.0	 0.0	 1	     1.0054	   -33.9300	 161.0	 3	     1.0600	     0.9400;
	112	 1	 0.0	 0.0	 0.0	 -50.0	 1	     1.0272	   -27.0100	 345.0	 3	     1.0600	     0.9400;
	113	 1	 32.7	 0.0	 0.0	 0.0	 1	     1.0252	   -30.9500	 161.0	 12	     1.0600	     0.9400;
	114	 2	 0.0	 0.0	 0.0	 0.0	 1	     1.0000	   -23.6800	 14.0	 3	     1.0600	     0.9400;
	115	 1	 17.32	 3.34	 0.0	 0.0	 1	     1.0174	   -36.0500	 161.0	 3	     1.0600	     0.9400;
	116	 1	 56.08	 11.2	 0.0	 0.0	 1	     1.0240	   -37.2900	 161.0	 3	     1.0600	     0.9400;
	117	 1	 101.9	 20.06	 0.0	 0.0	 1	     1.0140	   -37.9500	 161.0	 3	     1.0600	     0.9400;
	118	 2	 0.0	 0.0	 0.0	 0.0	 1	     1.0000	   -34.0300	 14.0	 3	     1.0600	     0.9400;
	119	 1	 0.0	 0.0	 0.0	 0.0	 1	     1.0097	   -35.2600	 345.0	 3	     1.0600	     0.9400;
	120	 1	 0.0	 0.0	 0.0	 0.0	 1	     1.0238	   -27.3700	 345.0	 8	     1.0600	     0.9400;
	121	 2	 0.0	 0.0	 0.0	 0.0	 1	     1.0000	   -20.1000	 24.0	 3	     1.0600	     0.9400;
	122	 1	 47.28	 9.36	 0.0	 0.0	 1	     0.9885	   -45.8400	 161.0	 3	     1.0600	     0.9400;
	123	 1	 165.0	 0.0	 0.0	 0.0	 1	     0.9997	   -46.2000	 161.0	 12	     1.0600	     0.9400;
	124	 1	 -571.0	 90.9	 0.0	 0.0	 1	     1.0089	   -31.0200	 345.0	 12	     1.0600	     0.9400;
	125	 2	 2000.0	 0.0	 0.0	 0.0	 1	     1.0200	   -29.3400	 345.0	 12	     1.0600	     0.9400;
	126	 1	 -467.0	 0.0	 0.0	 0.0	 1	     1.0109	   -26.5900	 345.0	 12	     1.0600	     0.9400;
	127	 1	 -52.6	 0.0	 0.0	 0.0	 1	     0.9848	   -29.5400	 345.0	 12	     1.0600	     0.9400;
	128	 1	 0.0	 0.0	 0.0	 0.0	 1	     1.0239	   -27.2700	 345.0	 8	     1.0600	     0.9400;
	129	 1	 0.0	 0.0	 0.0	 0.0	 1	     1.0243	   -27.4900	 345.0	 8	     1.0600	     0.9400;
	130	 2	 0.0	 0.0	 0.0	 0.0	 1	     1.0300	   -19.3500	 22.0	 8	     1.0600	     0.9400;
	131	 2	 0.0	 0.0	 0.0	 0.0	 1	     1.0180	   -20.4300	 18.0	 8	     1.0600	     0.9400;
	132	 1	 159.0	 0.0	 0.0	 0.0	 1	     1.0199	   -30.3600	 161.0	 12	     1.0600	     0.9400;
	133	 1	 30.1	 6.02	 0.0	 0.0	 1	     1.0352	   -32.1900	 69.0	 3	     1.0600	     0.9400;
	134	 1	 17.46	 3.34	 0.0	 0.0	 1	     1.0231	   -30.8600	 161.0	 3	     1.0600	     0.9400;
	135	 1	 20.06	 4.01	 0.0	 0.0	 1	     1.0320	   -32.2300	 69.0	 3	     1.0600	     0.9400;
	136	 1	 20.06	 4.01	 0.0	 0.0	 1	     1.0254	   -32.5000	 69.0	 3	     1.0600	     0.9400;
	137	 1	 20.06	 4.01	 0.0	 0.0	 1	     1.0290	   -32.4600	 69.0	 3	     1.0600	     0.9400;
	138	 1	 0.0	 0.0	 0.0	 0.0	 1	     1.0315	   -31.2800	 69.0	 3	     1.0600	     0.9400;
	139	 1	 10.1	 2.01	 0.0	 0.0	 1	     1.0265	   -32.0500	 69.0	 3	     1.0600	     0.9400;
	140	 1	 13.58	 2.68	 0.0	 0.0	 1	     1.0285	   -32.3900	 69.0	 3	     1.0600	     0.9400;
	141	 1	 0.0	 0.0	 0.0	 0.0	 1	     1.0026	   -33.9100	 161.0	 3	     1.0600	     0.9400;
	142	 1	 27.09	 5.35	 0.0	 0.0	 1	     1.0275	   -40.6300	 69.0	 3	     1.0600	     0.9400;
	143	 1	 21.07	 4.01	 0.0	 0.0	 1	     1.0056	   -39.4300	 69.0	 3	     1.0600	     0.9400;
	144	 1	 12.37	 2.01	 0.0	 0.0	 1	     1.0220	   -36.1700	 69.0	 3	     1.0600	     0.9400;
	145	 1	 10.83	 2.21	 0.0	 0.0	 1	     1.0189	   -34.4000	 69.0	 3	     1.0600	     0.9400;
	146	 1	 21.33	 4.01	 0.0	 0.0	 1	     1.0098	   -39.8900	 69.0	 3	     1.0600	     0.9400;
	147	 1	 216.4	 42.8	 0.0	 0.0	 1	     1.0102	   -38.9800	 161.0	 3	     1.0600	     0.9400;
	148	 1	 120.0	 24.0	 0.0	 0.0	 1	     1.0132	   -40.0100	 69.0	 3	     1.0600	     0.9400;
	149	 1	 0.0	 0.0	 0.0	 0.0	 1	     1.0257	   -23.7600	 161.0	 1	     1.0600	     0.9400;
	150	 1	 4.8	 1.6	 0.0	 0.0	 1	     1.0232	   -24.4100	 161.0	 1	     1.0600	     0.9400;
	151	 1	 24.0	 8.0	 0.0	 0.0	 1	     1.0098	   -26.7000	 161.0	 1	     1.0600	     0.9400;
	152	 1	 6.0	 0.0	 0.0	 0.0	 1	     1.0232	   -26.7900	 161.0	 12	     1.0600	     0.9400;
	153	 1	 4.0	 1.6	 0.0	 0.0	 1	     1.0176	   -25.8000	 69.0	 1	     1.0600	     0.9400;
	154	 1	 28.0	 9.6	 0.0	 6.0	 1	     0.9749	   -32.1000	 69.0	 1	     1.0600	     0.9400;
	155	 1	 12.0	 4.0	 0.0	 0.0	 1	     0.9852	   -30.2700	 69.0	 1	     1.0600	     0.9400;
	156	 1	 8.0	 2.4	 0.0	 0.0	 1	     0.9785	   -31.7900	 69.0	 1	     1.0600	     0.9400;
	157	 1	 32.0	 10.4	 0.0	 0.0	 1	     0.9800	   -32.5500	 69.0	 1	     1.0600	     0.9400;
	158	 1	 16.0	 5.6	 0.0	 3.0	 1	     0.9681	   -33.4900	 69.0	 1	     1.0600	     0.9400;
	159	 1	 8.0	 2.4	 0.0	 0.0	 1	     0.9684	   -33.3300	 69.0	 1	     1.0600	     0.9400;
	160	 1	 14.4	 4.8	 0.0	 3.0	 1	     0.9712	   -32.7600	 69.0	 1	     1.0600	     0.9400;
	161	 1	 32.0	 10.4	 0.0	 0.0	 1	     1.0038	   -28.1000	 161.0	 1	     1.0600	     0.9400;
	162	 1	 20.0	 6.4	 0.0	 0.0	 1	     1.0002	   -28.9700	 161.0	 1	     1.0600	     0.9400;
];

%% generator data
%	bus	Pg	Qg	Qmax	Qmin	Vg	mBase	status	Pmax	Pmin	Pc1	Pc2	Qc1min	Qc1max	Qc2min	Qc2max	ramp_agc	ramp_10	ramp_30	ramp_q	apf
mpc.gen = [
	6	 794.0	 180.81	 400.0	 -200.0	 1.0	 100.0	 1	 1217	 0.0	 0.0	 0.0	 0.0	 0.0	 0.0	 0.0	 0.0	 0.0	 0.0	 0.0	 0.0; % NUC
	73	 447.0	 85.84	 267.0	 -72.0	 1.0	 100.0	 1	 566	 0.0	 0.0	 0.0	 0.0	 0.0	 0.0	 0.0	 0.0	 0.0	 0.0	 0.0	 0.0; % NG
	76	 1055.0	 136.31	 605.0	 -170.0	 1.0	 100.0	 1	 1282	 0.0	 0.0	 0.0	 0.0	 0.0	 0.0	 0.0	 0.0	 0.0	 0.0	 0.0	 0.0; % COW
	99	 130.9	 5.21	 75.6	 -60.6	 1.0	 100.0	 1	 186	 0.0	 0.0	 0.0	 0.0	 0.0	 0.0	 0.0	 0.0	 0.0	 0.0	 0.0	 0.0; % NG
	101	 82.0	 30.34	 38.6	 -24.4	 1.0	 100.0	 1	 180	 0.0	 0.0	 0.0	 0.0	 0.0	 0.0	 0.0	 0.0	 0.0	 0.0	 0.0	 0.0; % NG
	108	 551.12	 155.82	 576.0	 -576.0	 1.0	 100.0	 1	 1151	 0.0	 0.0	 0.0	 0.0	 0.0	 0.0	 0.0	 0.0	 0.0	 0.0	 0.0	 0.0; % COW
	114	 131.0	 22.29	 33.0	 -25.0	 1.0	 100.0	 1	 148	 0.0	 0.0	 0.0	 0.0	 0.0	 0.0	 0.0	 0.0	 0.0	 0.0	 0.0	 0.0; % NG
	118	 173.0	 59.75	 95.0	 -44.0	 1.0	 100.0	 1	 189	 0.0	 0.0	 0.0	 0.0	 0.0	 0.0	 0.0	 0.0	 0.0	 0.0	 0.0	 0.0; % NG
	121	 620.0	 150.89	 250.0	 -120.0	 1.0	 100.0	 1	 1005	 0.0	 0.0	 0.0	 0.0	 0.0	 0.0	 0.0	 0.0	 0.0	 0.0	 0.0	 0.0; % COW
	125	 2388.0	 -22.94	 1295.0	 -1099.0	 1.02	 100.0	 1	 2590	 0.0	 0.0	 0.0	 0.0	 0.0	 0.0	 0.0	 0.0	 0.0	 0.0	 0.0	 0.0; % COW
	130	 455.0	 123.37	 288.0	 -144.0	 1.03	 100.0	 1	 591	 0.0	 0.0	 0.0	 0.0	 0.0	 0.0	 0.0	 0.0	 0.0	 0.0	 0.0	 0.0; % NG
	131	 575.0	 94.51	 290.0	 -265.0	 1.018	 100.0	 1	 580	 0.0	 0.0	 0.0	 0.0	 0.0	 0.0	 0.0	 0.0	 0.0	 0.0	 0.0	 0.0; % COW
];

%% generator cost data
%	2	startup	shutdown	n	c(n-1)	...	c0
mpc.gencost = [
	2	 0.0	 0.0	 3	   0.000000	   0.207675	   0.000000; % NUC
	2	 0.0	 0.0	 3	   0.000000	   1.124260	   0.000000; % NG
	2	 0.0	 0.0	 3	   0.000000	   0.245174	   0.000000; % COW
	2	 0.0	 0.0	 3	   0.000000	   0.456083	   0.000000; % NG
	2	 0.0	 0.0	 3	   0.000000	   1.127826	   0.000000; % NG
	2	 0.0	 0.0	 3	   0.000000	   0.743881	   0.000000; % COW
	2	 0.0	 0.0	 3	   0.000000	   0.656310	   0.000000; % NG
	2	 0.0	 0.0	 3	   0.000000	   1.106559	   0.000000; % NG
	2	 0.0	 0.0	 3	   0.000000	   0.746410	   0.000000; % COW
	2	 0.0	 0.0	 3	   0.000000	   0.569682	   0.000000; % COW
	2	 0.0	 0.0	 3	   0.000000	   0.914188	   0.000000; % NG
	2	 0.0	 0.0	 3	   0.000000	   0.881792	   0.000000; % COW
];

%% branch data
%	fbus	tbus	r	x	b	rateA	rateB	rateC	ratio	angle	status	angmin	angmax
mpc.branch = [
	1	 2	 0.0035	 0.0321	 0.5438	 612	 612	 612	 0.0	 0.0	 1	 -30.0	 30.0;
	1	 3	 0.0034	 0.0326	 0.7224	 894	 894	 894	 0.0	 0.0	 1	 -30.0	 30.0;
	1	 4	 0.0064	 0.0621	 0.987	 469	 469	 469	 0.0	 0.0	 1	 -30.0	 30.0;
	1	 5	 0.0011	 0.0119	 0.2012	 662	 662	 662	 0.0	 0.0	 1	 -30.0	 30.0;
	1	 6	 0.0	 0.0133	 0.0	 900.0	 2205	 2205	 1.0519	 0.0	 1	 -30.0	 30.0;
	2	 7	 0.0014	 0.0125	 0.2122	 604	 604	 604	 0.0	 0.0	 1	 -30.0	 30.0;
	2	 13	 0.0046	 0.0417	 0.7058	 609	 609	 609	 0.0	 0.0	 1	 -30.0	 30.0;
	3	 14	 0.2361	 1.0122	 0.0	 28	 28	 28	 0.0	 0.0	 1	 -30.0	 30.0;
	3	 50	 0.0389	 0.1699	 0.0	 168	 168	 168	 0.0	 0.0	 1	 -30.0	 30.0;
	3	 103	 0.1074	 1.8023	 0.0	 16	 16	 16	 0.0	 0.0	 1	 -30.0	 30.0;
	3	 123	 0.2883	 1.6719	 0.0	 17	 17	 17	 0.0	 0.0	 1	 -30.0	 30.0;
	3	 124	 0.014	 0.6483	 0.0	 45	 45	 45	 0.0	 0.0	 1	 -30.0	 30.0;
	3	 125	 0.0084	 0.1139	 0.0	 256	 256	 256	 0.0	 0.0	 1	 -30.0	 30.0;
	4	 112	 0.0059	 0.0568	 0.925	 513	 513	 513	 0.0	 0.0	 1	 -30.0	 30.0;
	4	 115	 0.0	 0.0185	 0.0	 500.0	 1585	 1585	 1.0	 0.0	 1	 -30.0	 30.0;
	4	 119	 0.0014	 0.0119	 0.205	 590	 590	 590	 0.0	 0.0	 1	 -30.0	 30.0;
	5	 120	 0.0022	 0.0224	 0.3792	 643	 643	 643	 0.0	 0.0	 1	 -30.0	 30.0;
	5	 129	 0.0022	 0.0268	 0.4612	 701	 701	 701	 0.0	 0.0	 1	 -30.0	 30.0;
	5	 131	 0.0	 0.0127	 0.0	 710.0	 2309	 2309	 1.0249	 0.0	 1	 -30.0	 30.0;
	7	 8	 0.0004	 0.0189	 0.0	 672.0	 1551	 1551	 0.9751	 0.0	 1	 -30.0	 30.0;
	7	 9	 0.0017	 0.0169	 0.2872	 636	 636	 636	 0.0	 0.0	 1	 -30.0	 30.0;
	8	 10	 0.4591	 1.0703	 0.0	 25	 25	 25	 0.0	 0.0	 1	 -30.0	 30.0;
	8	 12	 0.0106	 0.0574	 0.0	 158	 158	 158	 0.0	 0.0	 1	 -30.0	 30.0;
	8	 13	 0.1274	 0.4784	 0.0	 59	 59	 59	 0.0	 0.0	 1	 -30.0	 30.0;
	8	 14	 0.0473	 0.3956	 0.0	 73	 73	 73	 0.0	 0.0	 1	 -30.0	 30.0;
	8	 15	 0.5035	 1.7433	 0.0	 16	 16	 16	 0.0	 0.0	 1	 -30.0	 30.0;
	8	 132	 0.0252	 0.288	 0.0	 101	 101	 101	 0.0	 0.0	 1	 -30.0	 30.0;
	9	 75	 0.0013	 0.015	 0.2682	 683	 683	 683	 0.0	 0.0	 1	 -30.0	 30.0;
	10	 11	 0.0051	 0.037	 0.0716	 365	 365	 365	 0.0	 0.0	 1	 -30.0	 30.0;
	10	 13	 0.1299	 0.622	 0.0	 46	 46	 46	 0.0	 0.0	 1	 -30.0	 30.0;
	10	 15	 0.1275	 0.7033	 0.0	 41	 41	 41	 0.0	 0.0	 1	 -30.0	 30.0;
	10	 60	 0.2525	 1.2242	 0.0	 23	 23	 23	 0.0	 0.0	 1	 -30.0	 30.0;
	11	 15	 0.0285	 0.1793	 0.3484	 161	 161	 161	 0.0	 0.0	 1	 -30.0	 30.0;
	11	 46	 0.0142	 0.1225	 0.1876	 237	 237	 237	 0.0	 0.0	 1	 -30.0	 30.0;
	11	 58	 0.017	 0.107	 0.2074	 270	 270	 270	 0.0	 0.0	 1	 -30.0	 30.0;
	11	 59	 0.0071	 0.0471	 0.0852	 349	 349	 349	 0.0	 0.0	 1	 -30.0	 30.0;
	12	 2	 0.0008	 0.0377	 0.0	 336.0	 777	 777	 1.0252	 0.0	 1	 -30.0	 30.0;
	12	 13	 0.1038	 0.3137	 0.0	 88	 88	 88	 0.0	 0.0	 1	 -30.0	 30.0;
	12	 14	 0.1598	 0.6415	 0.0	 44	 44	 44	 0.0	 0.0	 1	 -30.0	 30.0;
	12	 132	 0.4486	 1.5773	 0.0	 17	 17	 17	 0.0	 0.0	 1	 -30.0	 30.0;
	13	 15	 0.044	 0.3227	 0.0	 90	 90	 90	 0.0	 0.0	 1	 -30.0	 30.0;
	13	 62	 0.0098	 0.1221	 0.0	 239	 239	 239	 0.0	 0.0	 1	 -30.0	 30.0;
	14	 72	 0.0107	 0.0828	 0.0	 263	 263	 263	 0.0	 0.0	 1	 -30.0	 30.0;
	14	 113	 0.0063	 0.0382	 0.0	 234	 234	 234	 0.0	 0.0	 1	 -30.0	 30.0;
	14	 132	 0.0057	 0.0374	 0.0	 243	 243	 243	 0.0	 0.0	 1	 -30.0	 30.0;
	15	 58	 0.0115	 0.0732	 0.142	 343	 343	 343	 0.0	 0.0	 1	 -30.0	 30.0;
	15	 60	 0.3907	 1.6753	 0.0	 17	 17	 17	 0.0	 0.0	 1	 -30.0	 30.0;
	15	 62	 0.0084	 0.0588	 0.0	 358	 358	 358	 0.0	 0.0	 1	 -30.0	 30.0;
	15	 63	 0.1704	 1.4555	 0.0	 20	 20	 20	 0.0	 0.0	 1	 -30.0	 30.0;
	16	 17	 0.6017	 1.4373	 0.0	 18	 18	 18	 0.0	 0.0	 1	 -30.0	 30.0;
	16	 18	 0.0297	 0.107	 0.0546	 183	 183	 183	 0.0	 0.0	 1	 -30.0	 30.0;
	16	 27	 0.1574	 0.8871	 0.0	 32	 32	 32	 0.0	 0.0	 1	 -30.0	 30.0;
	16	 126	 0.1053	 0.5132	 0.0	 55	 55	 55	 0.0	 0.0	 1	 -30.0	 30.0;
	16	 127	 0.0958	 0.5276	 0.0	 54	 54	 54	 0.0	 0.0	 1	 -30.0	 30.0;
	17	 18	 0.0213	 0.1013	 0.0642	 208	 208	 208	 0.0	 0.0	 1	 -30.0	 30.0;
	17	 19	 0.2314	 0.7678	 0.0	 36	 36	 36	 0.0	 0.0	 1	 -30.0	 30.0;
	17	 21	 0.0471	 0.2665	 0.0	 108	 108	 108	 0.0	 0.0	 1	 -30.0	 30.0;
	17	 127	 0.0287	 0.2637	 0.0	 110	 110	 110	 0.0	 0.0	 1	 -30.0	 30.0;
	18	 30	 0.0207	 0.1088	 0.052	 219	 219	 219	 0.0	 0.0	 1	 -30.0	 30.0;
	18	 32	 0.0234	 0.122	 0.0582	 218	 218	 218	 0.0	 0.0	 1	 -30.0	 30.0;
	18	 37	 0.0	 0.0456	 0.0	 225.0	 643	 643	 1.1193	 0.0	 1	 -30.0	 30.0;
	19	 21	 0.3867	 1.9005	 0.0	 15	 15	 15	 0.0	 0.0	 1	 -30.0	 30.0;
	19	 38	 0.0239	 0.125	 0.0596	 218	 218	 218	 0.0	 0.0	 1	 -30.0	 30.0;
	19	 43	 0.0603	 0.2572	 0.0	 111	 111	 111	 0.0	 0.0	 1	 -30.0	 30.0;
	19	 127	 0.1074	 0.6809	 0.0	 42	 42	 42	 0.0	 0.0	 1	 -30.0	 30.0;
	20	 53	 0.0	 0.114	 0.0	 75.0	 257	 257	 1.0	 0.0	 1	 -30.0	 30.0;
	20	 157	 0.0113	 0.0279	 0.0004	 44.0	 65	 65	 0.0	 0.0	 1	 -30.0	 30.0;
	21	 22	 0.0312	 0.1629	 0.0778	 176	 176	 176	 0.0	 0.0	 1	 -30.0	 30.0;
	21	 127	 0.0105	 0.6414	 0.0	 45	 45	 45	 0.0	 0.0	 1	 -30.0	 30.0;
	22	 38	 0.014	 0.054	 0.025	 189	 189	 189	 0.0	 0.0	 1	 -30.0	 30.0;
	22	 39	 0.0	 0.0493	 0.0	 225.0	 594	 594	 1.1081	 0.0	 1	 -30.0	 30.0;
	22	 40	 0.0188	 0.0717	 0.0328	 188	 188	 188	 0.0	 0.0	 1	 -30.0	 30.0;
	22	 41	 0.0172	 0.085	 0.0404	 212	 212	 212	 0.0	 0.0	 1	 -30.0	 30.0;
	23	 24	 0.0174	 0.0511	 0.023	 166	 166	 166	 0.0	 0.0	 1	 -30.0	 30.0;
	23	 60	 0.066	 0.3093	 0.0	 92	 92	 92	 0.0	 0.0	 1	 -30.0	 30.0;
	24	 25	 0.0	 0.034	 0.0	 225.0	 862	 862	 1.0217	 0.0	 1	 -30.0	 30.0;
	24	 28	 0.0249	 0.0725	 0.0202	 165	 165	 165	 0.0	 0.0	 1	 -30.0	 30.0;
	24	 45	 0.0137	 0.0725	 0.034	 219	 219	 219	 0.0	 0.0	 1	 -30.0	 30.0;
	25	 26	 0.0059	 0.0583	 0.9302	 500	 500	 500	 0.0	 0.0	 1	 -30.0	 30.0;
	25	 27	 0.0044	 0.041	 0.8384	 617	 617	 617	 0.0	 0.0	 1	 -30.0	 30.0;
	26	 74	 0.0063	 0.0607	 0.93	 480	 480	 480	 0.0	 0.0	 1	 -30.0	 30.0;
	26	 75	 0.003	 0.0322	 0.5038	 660	 660	 660	 0.0	 0.0	 1	 -30.0	 30.0;
	26	 76	 0.0	 0.0082	 0.0	 1250.0	 3577	 3577	 1.04	 0.0	 1	 -30.0	 30.0;
	27	 31	 0.0101	 0.1273	 0.0	 229	 229	 229	 0.0	 0.0	 1	 -30.0	 30.0;
	27	 62	 0.0173	 0.581	 0.0	 50	 50	 50	 0.0	 0.0	 1	 -30.0	 30.0;
	27	 65	 0.0105	 0.2764	 0.0	 106	 106	 106	 0.0	 0.0	 1	 -30.0	 30.0;
	27	 125	 0.035	 1.6845	 0.0	 17	 17	 17	 0.0	 0.0	 1	 -30.0	 30.0;
	27	 126	 0.0022	 0.0225	 0.0	 645	 645	 645	 0.0	 0.0	 1	 -30.0	 30.0;
	27	 127	 0.1506	 1.4355	 0.0	 20	 20	 20	 0.0	 0.0	 1	 -30.0	 30.0;
	28	 29	 0.024	 0.0965	 0.0444	 192	 192	 192	 0.0	 0.0	 1	 -30.0	 30.0;
	29	 30	 0.038	 0.15	 0.0696	 177.0	 189	 189	 0.0	 0.0	 1	 -30.0	 30.0;
	29	 31	 0.0206	 0.0833	 0.0384	 193	 193	 193	 0.0	 0.0	 1	 -30.0	 30.0;
	30	 32	 0.0249	 0.1005	 0.0458	 193	 193	 193	 0.0	 0.0	 1	 -30.0	 30.0;
	32	 33	 0.0114	 0.0448	 0.0208	 190	 190	 190	 0.0	 0.0	 1	 -30.0	 30.0;
	33	 34	 0.028	 0.114	 0.052	 180.0	 194	 194	 0.0	 0.0	 1	 -30.0	 30.0;
	33	 35	 0.0216	 0.107	 0.051	 213	 213	 213	 0.0	 0.0	 1	 -30.0	 30.0;
	33	 36	 0.0102	 0.0536	 0.0254	 219	 219	 219	 0.0	 0.0	 1	 -30.0	 30.0;
	34	 40	 0.0397	 0.1517	 0.069	 187	 187	 187	 0.0	 0.0	 1	 -30.0	 30.0;
	34	 77	 0.0235	 0.0896	 0.0408	 188	 188	 188	 0.0	 0.0	 1	 -30.0	 30.0;
	35	 40	 0.0271	 0.1341	 0.0638	 179.0	 212	 212	 0.0	 0.0	 1	 -30.0	 30.0;
	36	 67	 0.0176	 0.0924	 0.044	 219	 219	 219	 0.0	 0.0	 1	 -30.0	 30.0;
	37	 39	 0.0039	 0.0379	 0.67	 629	 629	 629	 0.0	 0.0	 1	 -30.0	 30.0;
	37	 126	 0.004	 0.0381	 0.67	 623	 623	 623	 0.0	 0.0	 1	 -30.0	 30.0;
	37	 127	 0.004	 0.0403	 0.6832	 640	 640	 640	 0.0	 0.0	 1	 -30.0	 30.0;
	39	 42	 0.002	 0.0186	 0.32	 616	 616	 616	 0.0	 0.0	 1	 -30.0	 30.0;
	40	 81	 0.03	 0.345	 0.0038	 81.0	 84	 84	 0.0	 0.0	 1	 -30.0	 30.0;
	40	 82	 0.004	 0.019	 0.0108	 208	 208	 208	 0.0	 0.0	 1	 -30.0	 30.0;
	41	 81	 0.037	 0.372	 0.0058	 78	 78	 78	 0.0	 0.0	 1	 -30.0	 30.0;
	41	 83	 0.0052	 0.0256	 0.0124	 212	 212	 212	 0.0	 0.0	 1	 -30.0	 30.0;
	41	 84	 0.0057	 0.058	 0.0292	 300	 300	 300	 0.0	 0.0	 1	 -30.0	 30.0;
	42	 109	 0.0019	 0.0196	 0.333	 647	 647	 647	 0.0	 0.0	 1	 -30.0	 30.0;
	43	 44	 0.0188	 0.0751	 0.0348	 192	 192	 192	 0.0	 0.0	 1	 -30.0	 30.0;
	43	 103	 0.0324	 0.1702	 0.0	 169	 169	 169	 0.0	 0.0	 1	 -30.0	 30.0;
	43	 124	 0.0293	 0.1766	 0.0	 163	 163	 163	 0.0	 0.0	 1	 -30.0	 30.0;
	43	 125	 0.1449	 0.6509	 0.0	 43	 43	 43	 0.0	 0.0	 1	 -30.0	 30.0;
	44	 102	 0.013	 0.05	 0.0236	 180.0	 188	 188	 0.0	 0.0	 1	 -30.0	 30.0;
	44	 103	 0.0127	 0.051	 0.0244	 180.0	 192	 192	 0.0	 0.0	 1	 -30.0	 30.0;
	45	 54	 0.0108	 0.057	 0.0272	 219	 219	 219	 0.0	 0.0	 1	 -30.0	 30.0;
	46	 47	 0.031	 0.1378	 0.0622	 177.0	 202	 202	 0.0	 0.0	 1	 -30.0	 30.0;
	47	 48	 0.0251	 0.1114	 0.0502	 177.0	 202	 202	 0.0	 0.0	 1	 -30.0	 30.0;
	47	 49	 0.003	 0.012	 0.0054	 192	 192	 192	 0.0	 0.0	 1	 -30.0	 30.0;
	48	 50	 0.0336	 0.166	 0.078	 173	 173	 173	 0.0	 0.0	 1	 -30.0	 30.0;
	48	 51	 0.042	 0.13	 0.057	 170	 170	 170	 0.0	 0.0	 1	 -30.0	 30.0;
	48	 52	 0.054	 0.168	 0.074	 166	 166	 166	 0.0	 0.0	 1	 -30.0	 30.0;
	49	 87	 0.014	 0.068	 0.0266	 422	 422	 422	 0.0	 0.0	 1	 -30.0	 30.0;
	50	 51	 0.03	 0.09	 0.041	 167	 167	 167	 0.0	 0.0	 1	 -30.0	 30.0;
	50	 123	 0.4071	 1.8543	 0.0	 15	 15	 15	 0.0	 0.0	 1	 -30.0	 30.0;
	50	 125	 0.1337	 0.6031	 0.0	 47	 47	 47	 0.0	 0.0	 1	 -30.0	 30.0;
	51	 141	 0.0323	 0.1	 0.0442	 170	 170	 170	 0.0	 0.0	 1	 -30.0	 30.0;
	52	 79	 0.0623	 0.2126	 0.094	 132	 132	 132	 0.0	 0.0	 1	 -30.0	 30.0;
	52	 106	 0.0231	 0.0717	 0.0314	 170	 170	 170	 0.0	 0.0	 1	 -30.0	 30.0;
	52	 116	 0.006	 0.0487	 0.0256	 269	 269	 269	 0.0	 0.0	 1	 -30.0	 30.0;
	52	 117	 0.0117	 0.0493	 0.023	 197	 197	 197	 0.0	 0.0	 1	 -30.0	 30.0;
	52	 118	 0.0	 0.052	 0.0	 200.0	 564	 564	 1.0429	 0.0	 1	 -30.0	 30.0;
	53	 11	 0.0005	 0.02	 0.0	 375.0	 1466	 1466	 1.0	 0.0	 1	 -30.0	 30.0;
	53	 54	 0.0275	 0.1961	 0.0956	 148	 148	 148	 0.0	 0.0	 1	 -30.0	 30.0;
	53	 55	 0.0005	 0.0026	 0.0022	 218	 218	 218	 0.0	 0.0	 1	 -30.0	 30.0;
	54	 56	 0.0174	 0.091	 0.043	 218	 218	 218	 0.0	 0.0	 1	 -30.0	 30.0;
	54	 57	 0.025	 0.1237	 0.0588	 212	 212	 212	 0.0	 0.0	 1	 -30.0	 30.0;
	55	 57	 0.0462	 0.1763	 0.0802	 160	 160	 160	 0.0	 0.0	 1	 -30.0	 30.0;
	55	 149	 0.0153	 0.0671	 0.0312	 201	 201	 201	 0.0	 0.0	 1	 -30.0	 30.0;
	55	 162	 0.004	 0.0189	 0.0098	 208	 208	 208	 0.0	 0.0	 1	 -30.0	 30.0;
	56	 67	 0.017	 0.0894	 0.0424	 219	 219	 219	 0.0	 0.0	 1	 -30.0	 30.0;
	57	 80	 0.0272	 0.1037	 0.0472	 180.0	 188	 188	 0.0	 0.0	 1	 -30.0	 30.0;
	58	 61	 0.0133	 0.1018	 0.1842	 276.0	 285	 285	 0.0	 0.0	 1	 -30.0	 30.0;
	59	 61	 0.0106	 0.0706	 0.121	 350	 350	 350	 0.0	 0.0	 1	 -30.0	 30.0;
	60	 61	 0.0027	 0.0653	 -0.0022	 100.0	 448	 448	 1.0252	 0.0	 1	 -30.0	 30.0;
	60	 61	 0.002	 0.0393	 0.0	 200.0	 745	 745	 1.0252	 0.0	 1	 -30.0	 30.0;
	60	 62	 0.3674	 0.964	 0.0	 28	 28	 28	 0.0	 0.0	 1	 -30.0	 30.0;
	60	 65	 0.1041	 0.4144	 0.0	 68	 68	 68	 0.0	 0.0	 1	 -30.0	 30.0;
	60	 126	 0.5367	 1.8295	 0.0	 15	 15	 15	 0.0	 0.0	 1	 -30.0	 30.0;
	61	 62	 0.0296	 0.2275	 0.3996	 127	 127	 127	 0.0	 0.0	 1	 -30.0	 30.0;
	61	 63	 0.0043	 0.0422	 0.0764	 345.0	 421	 421	 0.0	 0.0	 1	 -30.0	 30.0;
	62	 63	 0.0158	 0.1702	 0.0	 171	 171	 171	 0.0	 0.0	 1	 -30.0	 30.0;
	62	 65	 0.004	 0.074	 0.0	 395	 395	 395	 0.0	 0.0	 1	 -30.0	 30.0;
	62	 126	 0.0044	 0.2969	 0.0	 98	 98	 98	 0.0	 0.0	 1	 -30.0	 30.0;
	63	 65	 0.2409	 1.96	 0.0	 14	 14	 14	 0.0	 0.0	 1	 -30.0	 30.0;
	64	 65	 0.005	 0.0571	 0.9098	 511	 511	 511	 0.0	 0.0	 1	 -30.0	 30.0;
	64	 66	 0.0033	 0.0381	 0.6066	 683	 683	 683	 0.0	 0.0	 1	 -30.0	 30.0;
	65	 126	 0.0031	 0.1536	 0.0	 190	 190	 190	 0.0	 0.0	 1	 -30.0	 30.0;
	66	 11	 0.0	 0.0118	 0.0	 500.0	 2485	 2485	 1.0	 0.0	 1	 -30.0	 30.0;
	67	 68	 0.0193	 0.1013	 0.0482	 219	 219	 219	 0.0	 0.0	 1	 -30.0	 30.0;
	68	 69	 0.0068	 0.0353	 0.0168	 217	 217	 217	 0.0	 0.0	 1	 -30.0	 30.0;
	69	 77	 0.0098	 0.0374	 0.017	 188	 188	 188	 0.0	 0.0	 1	 -30.0	 30.0;
	69	 78	 0.0114	 0.0434	 0.0196	 180.0	 187	 187	 0.0	 0.0	 1	 -30.0	 30.0;
	69	 79	 0.0052	 0.0433	 0.022	 272	 272	 272	 0.0	 0.0	 1	 -30.0	 30.0;
	70	 73	 0.0	 0.0197	 0.0	 495.0	 1488	 1488	 1.0398	 0.0	 1	 -30.0	 30.0;
	70	 149	 0.0002	 0.0018	 0.001	 283	 283	 283	 0.0	 0.0	 1	 -30.0	 30.0;
	70	 149	 0.0002	 0.0018	 0.001	 283	 283	 283	 0.0	 0.0	 1	 -30.0	 30.0;
	71	 85	 0.0304	 0.1506	 0.0716	 190	 190	 190	 0.0	 0.0	 1	 -30.0	 30.0;
	71	 150	 0.0196	 0.097	 0.0462	 212	 212	 212	 0.0	 0.0	 1	 -30.0	 30.0;
	72	 113	 0.0022	 0.013	 0.0	 231	 231	 231	 0.0	 0.0	 1	 -30.0	 30.0;
	72	 132	 0.0028	 0.0168	 0.0	 233	 233	 233	 0.0	 0.0	 1	 -30.0	 30.0;
	72	 152	 0.0385	 0.18	 0.0	 159	 159	 159	 0.0	 0.0	 1	 -30.0	 30.0;
	74	 119	 0.0031	 0.031	 0.4822	 638	 638	 638	 0.0	 0.0	 1	 -30.0	 30.0;
	75	 128	 0.0008	 0.0087	 0.166	 664	 664	 664	 0.0	 0.0	 1	 -30.0	 30.0;
	75	 130	 0.0004	 0.0242	 0.0	 578.0	 1211	 1211	 1.0249	 0.0	 1	 -30.0	 30.0;
	78	 79	 0.0051	 0.0336	 0.0182	 244	 244	 244	 0.0	 0.0	 1	 -30.0	 30.0;
	78	 80	 0.0244	 0.093	 0.0422	 180.0	 188	 188	 0.0	 0.0	 1	 -30.0	 30.0;
	79	 74	 0.0	 0.018	 0.0	 500.0	 1629	 1629	 1.0248	 0.0	 1	 -30.0	 30.0;
	82	 83	 0.0053	 0.0249	 0.013	 207	 207	 207	 0.0	 0.0	 1	 -30.0	 30.0;
	84	 93	 0.0125	 0.0826	 0.0414	 244	 244	 244	 0.0	 0.0	 1	 -30.0	 30.0;
	85	 86	 0.0211	 0.1046	 0.0498	 213	 213	 213	 0.0	 0.0	 1	 -30.0	 30.0;
	86	 87	 0.028	 0.112	 0.0538	 254	 254	 254	 0.0	 0.0	 1	 -30.0	 30.0;
	86	 88	 0.044	 0.228	 0.109	 126	 126	 126	 0.0	 0.0	 1	 -30.0	 30.0;
	88	 96	 0.074	 0.25	 0.0142	 48.0	 112	 112	 0.0	 0.0	 1	 -30.0	 30.0;
	88	 106	 0.0079	 0.0468	 0.0232	 173.0	 618	 618	 0.0	 0.0	 1	 -30.0	 30.0;
	89	 86	 0.0	 0.057	 0.0	 90.0	 514	 514	 1.0252	 0.0	 1	 -30.0	 30.0;
	89	 90	 0.069	 0.134	 0.014	 69.0	 97	 97	 0.0	 0.0	 1	 -30.0	 30.0;
	90	 96	 0.1837	 0.359	 0.037	 72	 72	 72	 0.0	 0.0	 1	 -30.0	 30.0;
	91	 92	 0.0156	 0.0819	 0.0376	 219	 219	 219	 0.0	 0.0	 1	 -30.0	 30.0;
	91	 93	 0.0143	 0.0895	 0.045	 238	 238	 238	 0.0	 0.0	 1	 -30.0	 30.0;
	91	 94	 0.0145	 0.0957	 0.048	 244	 244	 244	 0.0	 0.0	 1	 -30.0	 30.0;
	92	 102	 0.015	 0.061	 0.0292	 193	 193	 193	 0.0	 0.0	 1	 -30.0	 30.0;
	93	 42	 0.0	 0.026	 0.0	 400.0	 1128	 1128	 1.0248	 0.0	 1	 -30.0	 30.0;
	93	 108	 0.0	 0.0154	 0.0	 600.0	 1904	 1904	 1.0503	 0.0	 1	 -30.0	 30.0;
	94	 103	 0.0227	 0.1333	 0.066	 216	 216	 216	 0.0	 0.0	 1	 -30.0	 30.0;
	94	 107	 0.0613	 0.1891	 0.0836	 147	 147	 147	 0.0	 0.0	 1	 -30.0	 30.0;
	94	 109	 0.0	 0.035	 0.0	 300.0	 838	 838	 1.0248	 0.0	 1	 -30.0	 30.0;
	95	 91	 0.0054	 0.0458	 -0.0036	 250.0	 636	 636	 1.02	 0.0	 1	 -30.0	 30.0;
...
];

% INFO    : === Translation Options ===
% INFO    : Phase Angle Bound:           30.0 (deg.)
% INFO    : Line Capacity Model:         stat
% INFO    : Gen Active Capacity Model:   stat
% INFO    : Gen Reactive Capacity Model: am50ag
% INFO    : Gen Active Cost Model:       stat
% WARNING : Unrecognized data matrix named mpc.busnames: data was ignored
% INFO    : 
% INFO    : === Generator Classification Notes ===
% INFO    : NUC    1   -    10.73
% INFO    : COW    5   -    70.10
% INFO    : NG     6   -    19.17
% INFO    : 
% INFO    : === Generator Active Capacity Stat Model Notes ===
% INFO    : Gen at bus 6 - NUC	: Pg=794.0, Pmax=894.0 -> Pmax=1217   samples: 1
% INFO    : Gen at bus 73 - NG	: Pg=447.0, Pmax=547.0 -> Pmax=566   samples: 37
% INFO    : Gen at bus 76 - COW	: Pg=1055.0, Pmax=1155.0 -> Pmax=1282   samples: 10
% INFO    : Gen at bus 99 - NG	: Pg=130.9, Pmax=230.9 -> Pmax=186   samples: 4
% INFO    : Gen at bus 101 - NG	: Pg=82.0, Pmax=182.0 -> Pmax=180   samples: 1
% INFO    : Gen at bus 108 - COW	: Pg=551.12, Pmax=1112.066 -> Pmax=1151   samples: 6
% INFO    : Gen at bus 114 - NG	: Pg=131.0, Pmax=231.0 -> Pmax=148   samples: 3
% INFO    : Gen at bus 118 - NG	: Pg=173.0, Pmax=273.0 -> Pmax=189   samples: 15
% INFO    : Gen at bus 121 - COW	: Pg=620.0, Pmax=720.0 -> Pmax=1005   samples: 13
% WARNING : Failed to find a generator capacity within (2388.0-11940.0) after 100 samples, using percent increase model
% INFO    : Gen at bus 125 - COW	: Pg=2388.0, Pmax=2488.0 -> Pmax=2590   samples: 100
% INFO    : Gen at bus 130 - NG	: Pg=455.0, Pmax=555.0 -> Pmax=591   samples: 72
% INFO    : Gen at bus 131 - COW	: Pg=575.0, Pmax=675.0 -> Pmax=580   samples: 7
% INFO    : 
% INFO    : === Generator Reactive Capacity Atmost Max 50 Percent Active Model Notes ===
% INFO    : Gen at bus 108 - COW	: Pmax 1151.0, Qmin -9999.0, Qmax 9999.0 -> Qmin -576.0, Qmax 576.0
% INFO    : Gen at bus 118 - NG	: Pmax 189.0, Qmin -44.0, Qmax 100.0 -> Qmin -44.0, Qmax 95.0
% INFO    : Gen at bus 125 - COW	: Pmax 2590.0, Qmin -1099.0, Qmax 9900.0 -> Qmin -1099.0, Qmax 1295.0
% INFO    : Gen at bus 131 - COW	: Pmax 580.0, Qmin -265.0, Qmax 320.0 -> Qmin -265.0, Qmax 290.0
% INFO    : 
% INFO    : === Generator Active Cost Stat Model Notes ===
% INFO    : Updated Generator Cost: NUC - 0.0 20.0 0.0125944584 -> 0 0.207675071925 0
% INFO    : Updated Generator Cost: NG - 0.0 20.0 0.0223713647 -> 0 1.12426008026 0
% INFO    : Updated Generator Cost: COW - 0.0 20.0 0.00947867299 -> 0 0.245174100602 0
% INFO    : Updated Generator Cost: NG - 0.0 20.0 0.076394194 -> 0 0.45608336648 0
% INFO    : Updated Generator Cost: NG - 0.0 20.0 0.12195122 -> 0 1.12782590719 0
% INFO    : Updated Generator Cost: COW - 0.0 20.0 0.0181448686 -> 0 0.743880577796 0
% INFO    : Updated Generator Cost: NG - 0.0 20.0 0.0763358779 -> 0 0.656309988872 0
% INFO    : Updated Generator Cost: NG - 0.0 20.0 0.0578034682 -> 0 1.10655906307 0
% INFO    : Updated Generator Cost: COW - 0.0 20.0 0.0161290323 -> 0 0.746409693794 0
% INFO    : Updated Generator Cost: COW - 0.0 20.0 0.00418760469 -> 0 0.5696819693 0
% INFO    : Updated Generator Cost: NG - 0.0 20.0 0.021978022 -> 0 0.914187841263 0
% INFO    : Updated Generator Cost: COW - 0.0 20.0 0.0173913043 -> 0 0.881791505868 0
% INFO    : 
% INFO    : === Line Capacity Stat Model Notes ===
% INFO    : Updated Thermal Rating: on line 1-2 : Rate A, Rate B, Rate C , 3450.0, 0.0, 0.0 -> 612
% WARNING : Different basekv values on line 1-3, branch flow stat model using max current model : from_basekv=345.0 to_basekv=161.0 
% INFO    : Updated Thermal Rating: on line 1-3 : Rate A, Rate B, Rate C , 3709.0, 0.0, 0.0 -> 894
% WARNING : Updated Thermal Rating Stat Model was larger than UB Model: on 1-4 : 629 , 469
% INFO    : Updated Thermal Rating: on line 1-4 : Rate A, Rate B, Rate C , 3450.0, 0.0, 0.0 -> 469
% INFO    : Updated Thermal Rating: on line 1-5 : Rate A, Rate B, Rate C , 4002.0, 0.0, 0.0 -> 662
% WARNING : Missing data for branch flow stat model on line 1-6 using max current model : from_basekv=345.0 to_basekv=22.0 r=0.0 x=0.0133
% INFO    : Updated Thermal Rating: on transformer 1-6 : Rate B, Rate C , 0.0, 0.0 -> 2205
% INFO    : Updated Thermal Rating: on line 2-7 : Rate A, Rate B, Rate C , 3709.0, 0.0, 0.0 -> 604
% INFO    : Updated Thermal Rating: on line 2-13 : Rate A, Rate B, Rate C , 3450.0, 0.0, 0.0 -> 609
% WARNING : Updated Thermal Rating Stat Model was larger than UB Model: on 3-14 : 198 , 28
% INFO    : Updated Thermal Rating: on line 3-14 : Rate A, Rate B, Rate C , 9900.0, 0.0, 0.0 -> 28
% WARNING : Updated Thermal Rating Stat Model was larger than UB Model: on 3-50 : 200 , 168
% INFO    : Updated Thermal Rating: on line 3-50 : Rate A, Rate B, Rate C , 9900.0, 0.0, 0.0 -> 168
% WARNING : Updated Thermal Rating Stat Model was larger than UB Model: on 3-103 : 381 , 16
% INFO    : Updated Thermal Rating: on line 3-103 : Rate A, Rate B, Rate C , 9900.0, 0.0, 0.0 -> 16
% WARNING : Updated Thermal Rating Stat Model was larger than UB Model: on 3-123 : 229 , 17
% INFO    : Updated Thermal Rating: on line 3-123 : Rate A, Rate B, Rate C , 9900.0, 0.0, 0.0 -> 17
% WARNING : Different basekv values on line 3-124, branch flow stat model using max current model : from_basekv=161.0 to_basekv=345.0 
% INFO    : Updated Thermal Rating: on line 3-124 : Rate A, Rate B, Rate C , 9900.0, 0.0, 0.0 -> 45
% WARNING : Different basekv values on line 3-125, branch flow stat model using max current model : from_basekv=161.0 to_basekv=345.0 
% INFO    : Updated Thermal Rating: on line 3-125 : Rate A, Rate B, Rate C , 9900.0, 0.0, 0.0 -> 256
% WARNING : Updated Thermal Rating Stat Model was larger than UB Model: on 4-112 : 626 , 513
% INFO    : Updated Thermal Rating: on line 4-112 : Rate A, Rate B, Rate C , 3450.0, 0.0, 0.0 -> 513
% WARNING : Missing data for branch flow stat model on line 4-115 using max current model : from_basekv=345.0 to_basekv=161.0 r=0.0 x=0.0185
% INFO    : Updated Thermal Rating: on line 4-115 : Rate B, Rate C , 0.0, 0.0 -> 1585
% INFO    : Updated Thermal Rating: on line 4-119 : Rate A, Rate B, Rate C , 3450.0, 0.0, 0.0 -> 590
% INFO    : Updated Thermal Rating: on line 5-120 : Rate A, Rate B, Rate C , 4002.0, 0.0, 0.0 -> 643
% INFO    : Updated Thermal Rating: on line 5-129 : Rate A, Rate B, Rate C , 2474.0, 0.0, 0.0 -> 701
% WARNING : Missing data for branch flow stat model on line 5-131 using max current model : from_basekv=345.0 to_basekv=18.0 r=0.0 x=0.0127
% INFO    : Updated Thermal Rating: on transformer 5-131 : Rate B, Rate C , 0.0, 0.0 -> 2309
% WARNING : Different basekv values on line 7-8, branch flow stat model using max current model : from_basekv=345.0 to_basekv=115.0 
% INFO    : Updated Thermal Rating: on transformer 7-8 : Rate B, Rate C , 0.0, 0.0 -> 1551
% INFO    : Updated Thermal Rating: on line 7-9 : Rate A, Rate B, Rate C , 2474.0, 0.0, 0.0 -> 636
% WARNING : Different basekv values on line 8-10, branch flow stat model using max current model : from_basekv=115.0 to_basekv=230.0 
% INFO    : Updated Thermal Rating: on line 8-10 : Rate A, Rate B, Rate C , 9900.0, 0.0, 0.0 -> 25
% INFO    : Updated Thermal Rating: on line 8-12 : Rate A, Rate B, Rate C , 9900.0, 0.0, 0.0 -> 158
% WARNING : Different basekv values on line 8-13, branch flow stat model using max current model : from_basekv=115.0 to_basekv=345.0 
% INFO    : Updated Thermal Rating: on line 8-13 : Rate A, Rate B, Rate C , 9900.0, 0.0, 0.0 -> 59
% WARNING : Different basekv values on line 8-14, branch flow stat model using max current model : from_basekv=115.0 to_basekv=161.0 
% INFO    : Updated Thermal Rating: on line 8-14 : Rate A, Rate B, Rate C , 9900.0, 0.0, 0.0 -> 73
% WARNING : Different basekv values on line 8-15, branch flow stat model using max current model : from_basekv=115.0 to_basekv=230.0 
% INFO    : Updated Thermal Rating: on line 8-15 : Rate A, Rate B, Rate C , 9900.0, 0.0, 0.0 -> 16
% WARNING : Different basekv values on line 8-132, branch flow stat model using max current model : from_basekv=115.0 to_basekv=161.0 
% INFO    : Updated Thermal Rating: on line 8-132 : Rate A, Rate B, Rate C , 9900.0, 0.0, 0.0 -> 101
% INFO    : Updated Thermal Rating: on line 9-75 : Rate A, Rate B, Rate C , 2474.0, 0.0, 0.0 -> 683
% INFO    : Updated Thermal Rating: on line 10-11 : Rate A, Rate B, Rate C , 736.0, 0.0, 0.0 -> 365
% WARNING : Different basekv values on line 10-13, branch flow stat model using max current model : from_basekv=230.0 to_basekv=345.0 
% INFO    : Updated Thermal Rating: on line 10-13 : Rate A, Rate B, Rate C , 9900.0, 0.0, 0.0 -> 46
% WARNING : Updated Thermal Rating Stat Model was larger than UB Model: on 10-15 : 320 , 41
% INFO    : Updated Thermal Rating: on line 10-15 : Rate A, Rate B, Rate C , 9900.0, 0.0, 0.0 -> 41
% WARNING : Different basekv values on line 10-60, branch flow stat model using max current model : from_basekv=230.0 to_basekv=115.0 
% INFO    : Updated Thermal Rating: on line 10-60 : Rate A, Rate B, Rate C , 9900.0, 0.0, 0.0 -> 23
% WARNING : Updated Thermal Rating Stat Model was larger than UB Model: on 11-15 : 341 , 161
% INFO    : Updated Thermal Rating: on line 11-15 : Rate A, Rate B, Rate C , 9900.0, 0.0, 0.0 -> 161
% WARNING : Different basekv values on line 11-46, branch flow stat model using max current model : from_basekv=230.0 to_basekv=161.0 
% INFO    : Updated Thermal Rating: on line 11-46 : Rate A, Rate B, Rate C , 460.0, 0.0, 0.0 -> 237
% WARNING : Updated Thermal Rating Stat Model was larger than UB Model: on 11-58 : 341 , 270
% INFO    : Updated Thermal Rating: on line 11-58 : Rate A, Rate B, Rate C , 9900.0, 0.0, 0.0 -> 270
% INFO    : Updated Thermal Rating: on line 11-59 : Rate A, Rate B, Rate C , 9900.0, 0.0, 0.0 -> 349
% WARNING : Different basekv values on line 12-2, branch flow stat model using max current model : from_basekv=115.0 to_basekv=345.0 
% INFO    : Updated Thermal Rating: on transformer 12-2 : Rate B, Rate C , 0.0, 0.0 -> 777
% WARNING : Different basekv values on line 12-13, branch flow stat model using max current model : from_basekv=115.0 to_basekv=345.0 
% INFO    : Updated Thermal Rating: on line 12-13 : Rate A, Rate B, Rate C , 9900.0, 0.0, 0.0 -> 88
% WARNING : Different basekv values on line 12-14, branch flow stat model using max current model : from_basekv=115.0 to_basekv=161.0 
% INFO    : Updated Thermal Rating: on line 12-14 : Rate A, Rate B, Rate C , 9900.0, 0.0, 0.0 -> 44
% WARNING : Different basekv values on line 12-132, branch flow stat model using max current model : from_basekv=115.0 to_basekv=161.0 
% INFO    : Updated Thermal Rating: on line 12-132 : Rate A, Rate B, Rate C , 9900.0, 0.0, 0.0 -> 17
% WARNING : Different basekv values on line 13-15, branch flow stat model using max current model : from_basekv=345.0 to_basekv=230.0 
% INFO    : Updated Thermal Rating: on line 13-15 : Rate A, Rate B, Rate C , 9900.0, 0.0, 0.0 -> 90
% WARNING : Different basekv values on line 13-62, branch flow stat model using max current model : from_basekv=345.0 to_basekv=230.0 
% INFO    : Updated Thermal Rating: on line 13-62 : Rate A, Rate B, Rate C , 9900.0, 0.0, 0.0 -> 239
% INFO    : Updated Thermal Rating: on line 14-72 : Rate A, Rate B, Rate C , 9900.0, 0.0, 0.0 -> 263
% INFO    : Updated Thermal Rating: on line 14-113 : Rate A, Rate B, Rate C , 9900.0, 0.0, 0.0 -> 234
% INFO    : Updated Thermal Rating: on line 14-132 : Rate A, Rate B, Rate C , 9900.0, 0.0, 0.0 -> 243
% INFO    : Updated Thermal Rating: on line 15-58 : Rate A, Rate B, Rate C , 9900.0, 0.0, 0.0 -> 343
% WARNING : Different basekv values on line 15-60, branch flow stat model using max current model : from_basekv=230.0 to_basekv=115.0 
% INFO    : Updated Thermal Rating: on line 15-60 : Rate A, Rate B, Rate C , 9900.0, 0.0, 0.0 -> 17
% INFO    : Updated Thermal Rating: on line 15-62 : Rate A, Rate B, Rate C , 9900.0, 0.0, 0.0 -> 358
% WARNING : Updated Thermal Rating Stat Model was larger than UB Model: on 15-63 : 394 , 20
% INFO    : Updated Thermal Rating: on line 15-63 : Rate A, Rate B, Rate C , 9900.0, 0.0, 0.0 -> 20
% WARNING : Updated Thermal Rating Stat Model was larger than UB Model: on 16-17 : 150 , 18
% INFO    : Updated Thermal Rating: on line 16-17 : Rate A, Rate B, Rate C , 9900.0, 0.0, 0.0 -> 18
% INFO    : Updated Thermal Rating: on line 16-18 : Rate A, Rate B, Rate C , 269.0, 0.0, 0.0 -> 183
% WARNING : Different basekv values on line 16-27, branch flow stat model using max current model : from_basekv=161.0 to_basekv=345.0 
% INFO    : Updated Thermal Rating: on line 16-27 : Rate A, Rate B, Rate C , 9900.0, 0.0, 0.0 -> 32
% WARNING : Different basekv values on line 16-126, branch flow stat model using max current model : from_basekv=161.0 to_basekv=345.0 
% INFO    : Updated Thermal Rating: on line 16-126 : Rate A, Rate B, Rate C , 9900.0, 0.0, 0.0 -> 55
% WARNING : Different basekv values on line 16-127, branch flow stat model using max current model : from_basekv=161.0 to_basekv=345.0 
% INFO    : Updated Thermal Rating: on line 16-127 : Rate A, Rate B, Rate C , 9900.0, 0.0, 0.0 -> 54
% INFO    : Updated Thermal Rating: on line 17-18 : Rate A, Rate B, Rate C , 361.0, 0.0, 0.0 -> 208
% WARNING : Updated Thermal Rating Stat Model was larger than UB Model: on 17-19 : 175 , 36
% INFO    : Updated Thermal Rating: on line 17-19 : Rate A, Rate B, Rate C , 9900.0, 0.0, 0.0 -> 36
% WARNING : Updated Thermal Rating Stat Model was larger than UB Model: on 17-21 : 227 , 108
% INFO    : Updated Thermal Rating: on line 17-21 : Rate A, Rate B, Rate C , 9900.0, 0.0, 0.0 -> 108
% WARNING : Different basekv values on line 17-127, branch flow stat model using max current model : from_basekv=161.0 to_basekv=345.0 
% INFO    : Updated Thermal Rating: on line 17-127 : Rate A, Rate B, Rate C , 9900.0, 0.0, 0.0 -> 110
% INFO    : Updated Thermal Rating: on line 18-30 : Rate A, Rate B, Rate C , 362.0, 0.0, 0.0 -> 219
% INFO    : Updated Thermal Rating: on line 18-32 : Rate A, Rate B, Rate C , 361.0, 0.0, 0.0 -> 218
% WARNING : Missing data for branch flow stat model on line 18-37 using max current model : from_basekv=161.0 to_basekv=345.0 r=0.0 x=0.0456
% INFO    : Updated Thermal Rating: on transformer 18-37 : Rate B, Rate C , 0.0, 0.0 -> 643
% WARNING : Updated Thermal Rating Stat Model was larger than UB Model: on 19-21 : 212 , 15
% INFO    : Updated Thermal Rating: on line 19-21 : Rate A, Rate B, Rate C , 9900.0, 0.0, 0.0 -> 15
% INFO    : Updated Thermal Rating: on line 19-38 : Rate A, Rate B, Rate C , 354.0, 0.0, 0.0 -> 218
% WARNING : Updated Thermal Rating Stat Model was larger than UB Model: on 19-43 : 198 , 111
% INFO    : Updated Thermal Rating: on line 19-43 : Rate A, Rate B, Rate C , 9900.0, 0.0, 0.0 -> 111
% WARNING : Different basekv values on line 19-127, branch flow stat model using max current model : from_basekv=161.0 to_basekv=345.0 
% INFO    : Updated Thermal Rating: on line 19-127 : Rate A, Rate B, Rate C , 9900.0, 0.0, 0.0 -> 42
% WARNING : Missing data for branch flow stat model on line 20-53 using max current model : from_basekv=69.0 to_basekv=161.0 r=0.0 x=0.114
% INFO    : Updated Thermal Rating: on line 20-53 : Rate B, Rate C , 0.0, 0.0 -> 257
% INFO    : Updated Thermal Rating: on line 20-157 : Rate B, Rate C , 0.0, 0.0 -> 65
% WARNING : Updated Thermal Rating Stat Model was larger than UB Model: on 21-22 : 218 , 176
% INFO    : Updated Thermal Rating: on line 21-22 : Rate A, Rate B, Rate C , 387.0, 0.0, 0.0 -> 176
% WARNING : Different basekv values on line 21-127, branch flow stat model using max current model : from_basekv=161.0 to_basekv=345.0 
% INFO    : Updated Thermal Rating: on line 21-127 : Rate A, Rate B, Rate C , 9900.0, 0.0, 0.0 -> 45
% INFO    : Updated Thermal Rating: on line 22-38 : Rate A, Rate B, Rate C , 362.0, 0.0, 0.0 -> 189
% WARNING : Missing data for branch flow stat model on line 22-39 using max current model : from_basekv=161.0 to_basekv=345.0 r=0.0 x=0.0493
% INFO    : Updated Thermal Rating: on transformer 22-39 : Rate B, Rate C , 0.0, 0.0 -> 594
% INFO    : Updated Thermal Rating: on line 22-40 : Rate A, Rate B, Rate C , 362.0, 0.0, 0.0 -> 188
% INFO    : Updated Thermal Rating: on line 22-41 : Rate A, Rate B, Rate C , 351.0, 0.0, 0.0 -> 212
% INFO    : Updated Thermal Rating: on line 23-24 : Rate A, Rate B, Rate C , 361.0, 0.0, 0.0 -> 166
% WARNING : Different basekv values on line 23-60, branch flow stat model using max current model : from_basekv=161.0 to_basekv=115.0 
% INFO    : Updated Thermal Rating: on line 23-60 : Rate A, Rate B, Rate C , 9900.0, 0.0, 0.0 -> 92
% WARNING : Missing data for branch flow stat model on line 24-25 using max current model : from_basekv=161.0 to_basekv=345.0 r=0.0 x=0.034
% INFO    : Updated Thermal Rating: on transformer 24-25 : Rate B, Rate C , 0.0, 0.0 -> 862
% INFO    : Updated Thermal Rating: on line 24-28 : Rate A, Rate B, Rate C , 361.0, 0.0, 0.0 -> 165
% INFO    : Updated Thermal Rating: on line 24-45 : Rate A, Rate B, Rate C , 359.0, 0.0, 0.0 -> 219
% WARNING : Updated Thermal Rating Stat Model was larger than UB Model: on 25-26 : 634 , 500
% INFO    : Updated Thermal Rating: on line 25-26 : Rate A, Rate B, Rate C , 4105.0, 0.0, 0.0 -> 500
% INFO    : Updated Thermal Rating: on line 25-27 : Rate A, Rate B, Rate C , 2484.0, 0.0, 0.0 -> 617
% WARNING : Updated Thermal Rating Stat Model was larger than UB Model: on 26-74 : 627 , 480
% INFO    : Updated Thermal Rating: on line 26-74 : Rate A, Rate B, Rate C , 2484.0, 0.0, 0.0 -> 480
% INFO    : Updated Thermal Rating: on line 26-75 : Rate A, Rate B, Rate C , 3709.0, 0.0, 0.0 -> 660
% WARNING : Missing data for branch flow stat model on line 26-76 using max current model : from_basekv=345.0 to_basekv=24.0 r=0.0 x=0.0082
% INFO    : Updated Thermal Rating: on transformer 26-76 : Rate B, Rate C , 0.0, 0.0 -> 3577
% WARNING : Different basekv values on line 27-31, branch flow stat model using max current model : from_basekv=345.0 to_basekv=161.0 
% INFO    : Updated Thermal Rating: on line 27-31 : Rate A, Rate B, Rate C , 9900.0, 0.0, 0.0 -> 229
% WARNING : Different basekv values on line 27-62, branch flow stat model using max current model : from_basekv=345.0 to_basekv=230.0 
% INFO    : Updated Thermal Rating: on line 27-62 : Rate A, Rate B, Rate C , 9900.0, 0.0, 0.0 -> 50
% WARNING : Updated Thermal Rating Stat Model was larger than UB Model: on 27-65 : 1013 , 106
% INFO    : Updated Thermal Rating: on line 27-65 : Rate A, Rate B, Rate C , 9900.0, 0.0, 0.0 -> 106
% WARNING : Updated Thermal Rating Stat Model was larger than UB Model: on 27-125 : 1351 , 17
% INFO    : Updated Thermal Rating: on line 27-125 : Rate A, Rate B, Rate C , 9900.0, 0.0, 0.0 -> 17
% INFO    : Updated Thermal Rating: on line 27-126 : Rate A, Rate B, Rate C , 9900.0, 0.0, 0.0 -> 645
% WARNING : Updated Thermal Rating Stat Model was larger than UB Model: on 27-127 : 623 , 20
% INFO    : Updated Thermal Rating: on line 27-127 : Rate A, Rate B, Rate C , 9900.0, 0.0, 0.0 -> 20
% INFO    : Updated Thermal Rating: on line 28-29 : Rate A, Rate B, Rate C , 269.0, 0.0, 0.0 -> 192
% WARNING : Updated Thermal Rating Stat Model was larger than UB Model: on 29-30 : 191 , 189
% INFO    : Updated Thermal Rating: on line 29-30 : Rate B, Rate C , 0.0, 0.0 -> 189
% INFO    : Updated Thermal Rating: on line 29-31 : Rate A, Rate B, Rate C , 269.0, 0.0, 0.0 -> 193
% INFO    : Updated Thermal Rating: on line 30-32 : Rate A, Rate B, Rate C , 325.0, 0.0, 0.0 -> 193
% INFO    : Updated Thermal Rating: on line 32-33 : Rate A, Rate B, Rate C , 325.0, 0.0, 0.0 -> 190
% INFO    : Updated Thermal Rating: on line 33-34 : Rate B, Rate C , 0.0, 0.0 -> 194
% INFO    : Updated Thermal Rating: on line 33-35 : Rate A, Rate B, Rate C , 387.0, 0.0, 0.0 -> 213
% INFO    : Updated Thermal Rating: on line 33-36 : Rate A, Rate B, Rate C , 349.0, 0.0, 0.0 -> 219
% WARNING : Updated Thermal Rating Stat Model was larger than UB Model: on 34-40 : 188 , 187
% INFO    : Updated Thermal Rating: on line 34-40 : Rate A, Rate B, Rate C , 325.0, 0.0, 0.0 -> 187
% INFO    : Updated Thermal Rating: on line 34-77 : Rate A, Rate B, Rate C , 269.0, 0.0, 0.0 -> 188
% INFO    : Updated Thermal Rating: on line 35-40 : Rate B, Rate C , 0.0, 0.0 -> 212
% INFO    : Updated Thermal Rating: on line 36-67 : Rate A, Rate B, Rate C , 349.0, 0.0, 0.0 -> 219
% INFO    : Updated Thermal Rating: on line 37-39 : Rate A, Rate B, Rate C , 1656.0, 0.0, 0.0 -> 629
% INFO    : Updated Thermal Rating: on line 37-126 : Rate A, Rate B, Rate C , 2484.0, 0.0, 0.0 -> 623
% INFO    : Updated Thermal Rating: on line 37-127 : Rate A, Rate B, Rate C , 3312.0, 0.0, 0.0 -> 640
% INFO    : Updated Thermal Rating: on line 39-42 : Rate A, Rate B, Rate C , 1656.0, 0.0, 0.0 -> 616
% WARNING : Different basekv values on line 40-81, branch flow stat model using max current model : from_basekv=161.0 to_basekv=69.0 
% INFO    : Updated Thermal Rating: on line 40-81 : Rate B, Rate C , 0.0, 0.0 -> 84
% INFO    : Updated Thermal Rating: on line 40-82 : Rate A, Rate B, Rate C , 351.0, 0.0, 0.0 -> 208
% WARNING : Different basekv values on line 41-81, branch flow stat model using max current model : from_basekv=161.0 to_basekv=69.0 
% INFO    : Updated Thermal Rating: on line 41-81 : Rate A, Rate B, Rate C , 81.0, 0.0, 0.0 -> 78
% INFO    : Updated Thermal Rating: on line 41-83 : Rate A, Rate B, Rate C , 9900.0, 0.0, 0.0 -> 212
% INFO    : Updated Thermal Rating: on line 41-84 : Rate A, Rate B, Rate C , 406.0, 0.0, 0.0 -> 300
% INFO    : Updated Thermal Rating: on line 42-109 : Rate A, Rate B, Rate C , 3795.0, 0.0, 0.0 -> 647
% INFO    : Updated Thermal Rating: on line 43-44 : Rate A, Rate B, Rate C , 269.0, 0.0, 0.0 -> 192
% WARNING : Updated Thermal Rating Stat Model was larger than UB Model: on 43-103 : 219 , 169
% INFO    : Updated Thermal Rating: on line 43-103 : Rate A, Rate B, Rate C , 9900.0, 0.0, 0.0 -> 169
% WARNING : Different basekv values on line 43-124, branch flow stat model using max current model : from_basekv=161.0 to_basekv=345.0 
% INFO    : Updated Thermal Rating: on line 43-124 : Rate A, Rate B, Rate C , 9900.0, 0.0, 0.0 -> 163
% WARNING : Different basekv values on line 43-125, branch flow stat model using max current model : from_basekv=161.0 to_basekv=345.0 
% INFO    : Updated Thermal Rating: on line 43-125 : Rate A, Rate B, Rate C , 9900.0, 0.0, 0.0 -> 43
% INFO    : Updated Thermal Rating: on line 44-102 : Rate B, Rate C , 0.0, 0.0 -> 188
% INFO    : Updated Thermal Rating: on line 44-103 : Rate B, Rate C , 0.0, 0.0 -> 192
% INFO    : Updated Thermal Rating: on line 45-54 : Rate A, Rate B, Rate C , 354.0, 0.0, 0.0 -> 219
% INFO    : Updated Thermal Rating: on line 46-47 : Rate B, Rate C , 0.0, 0.0 -> 202
% INFO    : Updated Thermal Rating: on line 47-48 : Rate B, Rate C , 0.0, 0.0 -> 202
% INFO    : Updated Thermal Rating: on line 47-49 : Rate A, Rate B, Rate C , 9900.0, 0.0, 0.0 -> 192
% WARNING : Updated Thermal Rating Stat Model was larger than UB Model: on 48-50 : 212 , 173
% INFO    : Updated Thermal Rating: on line 48-50 : Rate A, Rate B, Rate C , 9900.0, 0.0, 0.0 -> 173
% INFO    : Updated Thermal Rating: on line 48-51 : Rate A, Rate B, Rate C , 9900.0, 0.0, 0.0 -> 170
% WARNING : Updated Thermal Rating Stat Model was larger than UB Model: on 48-52 : 170 , 166
% INFO    : Updated Thermal Rating: on line 48-52 : Rate A, Rate B, Rate C , 261.0, 0.0, 0.0 -> 166
% WARNING : Different basekv values on line 49-87, branch flow stat model using max current model : from_basekv=161.0 to_basekv=115.0 
% INFO    : Updated Thermal Rating: on line 49-87 : Rate A, Rate B, Rate C , 9900.0, 0.0, 0.0 -> 422
% INFO    : Updated Thermal Rating: on line 50-51 : Rate A, Rate B, Rate C , 9900.0, 0.0, 0.0 -> 167
% WARNING : Updated Thermal Rating Stat Model was larger than UB Model: on 50-123 : 204 , 15
% INFO    : Updated Thermal Rating: on line 50-123 : Rate A, Rate B, Rate C , 9900.0, 0.0, 0.0 -> 15
% WARNING : Different basekv values on line 50-125, branch flow stat model using max current model : from_basekv=161.0 to_basekv=345.0 
% INFO    : Updated Thermal Rating: on line 50-125 : Rate A, Rate B, Rate C , 9900.0, 0.0, 0.0 -> 47
% INFO    : Updated Thermal Rating: on line 51-141 : Rate A, Rate B, Rate C , 264.0, 0.0, 0.0 -> 170
% WARNING : Updated Thermal Rating Stat Model was larger than UB Model: on 52-79 : 178 , 132
% INFO    : Updated Thermal Rating: on line 52-79 : Rate A, Rate B, Rate C , 269.0, 0.0, 0.0 -> 132
% INFO    : Updated Thermal Rating: on line 52-106 : Rate A, Rate B, Rate C , 269.0, 0.0, 0.0 -> 170
% INFO    : Updated Thermal Rating: on line 52-116 : Rate A, Rate B, Rate C , 515.0, 0.0, 0.0 -> 269
% INFO    : Updated Thermal Rating: on line 52-117 : Rate A, Rate B, Rate C , 337.0, 0.0, 0.0 -> 197
% WARNING : Missing data for branch flow stat model on line 52-118 using max current model : from_basekv=161.0 to_basekv=14.0 r=0.0 x=0.052
% INFO    : Updated Thermal Rating: on transformer 52-118 : Rate B, Rate C , 0.0, 0.0 -> 564
% WARNING : Different basekv values on line 53-11, branch flow stat model using max current model : from_basekv=161.0 to_basekv=230.0 
% INFO    : Updated Thermal Rating: on line 53-11 : Rate B, Rate C , 0.0, 0.0 -> 1466
% WARNING : Updated Thermal Rating Stat Model was larger than UB Model: on 53-54 : 253 , 148
% INFO    : Updated Thermal Rating: on line 53-54 : Rate A, Rate B, Rate C , 177.0, 0.0, 0.0 -> 148
% INFO    : Updated Thermal Rating: on line 53-55 : Rate A, Rate B, Rate C , 538.0, 0.0, 0.0 -> 218
% INFO    : Updated Thermal Rating: on line 54-56 : Rate A, Rate B, Rate C , 354.0, 0.0, 0.0 -> 218
% INFO    : Updated Thermal Rating: on line 54-57 : Rate A, Rate B, Rate C , 387.0, 0.0, 0.0 -> 212
% WARNING : Updated Thermal Rating Stat Model was larger than UB Model: on 55-57 : 188 , 160
% INFO    : Updated Thermal Rating: on line 55-57 : Rate A, Rate B, Rate C , 375.0, 0.0, 0.0 -> 160
% INFO    : Updated Thermal Rating: on line 55-149 : Rate A, Rate B, Rate C , 357.0, 0.0, 0.0 -> 201
% INFO    : Updated Thermal Rating: on line 55-162 : Rate A, Rate B, Rate C , 538.0, 0.0, 0.0 -> 208
% INFO    : Updated Thermal Rating: on line 56-67 : Rate A, Rate B, Rate C , 349.0, 0.0, 0.0 -> 219
% INFO    : Updated Thermal Rating: on line 57-80 : Rate B, Rate C , 0.0, 0.0 -> 188
% WARNING : Updated Thermal Rating Stat Model was larger than UB Model: on 58-61 : 374 , 285
% INFO    : Updated Thermal Rating: on line 58-61 : Rate B, Rate C , 0.0, 0.0 -> 285
% INFO    : Updated Thermal Rating: on line 59-61 : Rate A, Rate B, Rate C , 9900.0, 0.0, 0.0 -> 350
% WARNING : Different basekv values on line 60-61, branch flow stat model using max current model : from_basekv=115.0 to_basekv=230.0 
% INFO    : Updated Thermal Rating: on transformer 60-61 : Rate B, Rate C , 0.0, 0.0 -> 448
% WARNING : Different basekv values on line 60-61, branch flow stat model using max current model : from_basekv=115.0 to_basekv=230.0 
% INFO    : Updated Thermal Rating: on transformer 60-61 : Rate B, Rate C , 0.0, 0.0 -> 745
% WARNING : Different basekv values on line 60-62, branch flow stat model using max current model : from_basekv=115.0 to_basekv=230.0 
...